[TITLE]
Scenario: ALT2 
Date: 02-08-2023 15:53:31 

[JUNCTIONS]
;ID              	Elev        	Demand      	Pattern         
 1276            	1002.28466796875	0           	                	;
 1277            	1002.29315185547	0           	Domiciliario    	;
 1280            	1004.12731933594	0           	Domiciliario    	;
 1281            	1004.13970947266	0           	Domiciliario    	;
 1283            	1036.57409667969	0           	Domiciliario    	;
 1284            	1036.59851074219	0           	Domiciliario    	;
 1286            	1002.18707275391	0           	Domiciliario    	;
 1287            	1002.22088623047	0           	Domiciliario    	;
 1289            	1002.15588378906	0           	Domiciliario    	;
 1290            	1002.16094970703	0           	Domiciliario    	;
 1292            	1004.65106201172	0           	Domiciliario    	;
 1293            	1004.70513916016	0           	Domiciliario    	;
 1295            	1002.2099609375	0           	Domiciliario    	;
 1296            	1002.19171142578	0           	Domiciliario    	;
 1298            	1002        	0           	Domiciliario    	;
 1299            	1002        	0           	Domiciliario    	;
 1301            	1037        	0           	Domiciliario    	;
 1302            	1037        	0           	Domiciliario    	;
 1304            	1006.69226074219	0           	Domiciliario    	;
 1305            	1006.64276123047	0           	Domiciliario    	;
 1307            	1046.81591796875	0           	Domiciliario    	;
 1308            	1046.89038085938	0           	Domiciliario    	;
 1310            	1061.16918945313	0           	Domiciliario    	;
 1311            	1061.17     	0           	Domiciliario    	;
 1313            	1019.67236328125	0           	Domiciliario    	;
 1314            	1020.0517578125	0           	Domiciliario    	;
 1316            	1003.72247314453	0           	Domiciliario    	;
 1317            	1003.42504882813	0           	Domiciliario    	;
 1319            	1067.51708984375	0           	Domiciliario    	;
 1320            	1068.05847167969	0           	Domiciliario    	;
 1322            	1005.12036132813	0           	Domiciliario    	;
 1323            	1004.95440673828	0           	Domiciliario    	;
 1325            	1044.11     	0           	Domiciliario    	;
 1326            	1043.98     	0           	Domiciliario    	;
 1328            	1002.26959228516	0           	Domiciliario    	;
 1330            	1002.23321533203	0           	Domiciliario    	;
 1332            	1041.04052734375	0           	Domiciliario    	;
 1333            	1041.27111816406	0           	Domiciliario    	;
 1335            	1044.59252929688	0           	Domiciliario    	;
 1338            	1039.44677734375	0           	Domiciliario    	;
 1339            	1039.49621582031	0           	Domiciliario    	;
 1341            	1041.5      	0           	Domiciliario    	;
 1342            	1041.60473632813	0           	Domiciliario    	;
 1344            	1004.26885986328	0           	Domiciliario    	;
 1346            	1039.34301757813	0           	Domiciliario    	;
 1347            	1039.61499023438	0           	Domiciliario    	;
 1349            	1020.35357666016	0           	Domiciliario    	;
 1350            	1020.654296875	0           	Domiciliario    	;
 1352            	1015.68780517578	0           	Domiciliario    	;
 1353            	1016.05169677734	0           	Domiciliario    	;
 1355            	1042.15075683594	0           	Domiciliario    	;
 1356            	1042.36315917969	0           	Domiciliario    	;
 1358            	1036.30310058594	0           	Domiciliario    	;
 1360            	1045.83874511719	0           	Domiciliario    	;
 1361            	1046.16394042969	0           	Domiciliario    	;
 1363            	1018.80334472656	0           	Domiciliario    	;
 1364            	1018.83135986328	0           	Domiciliario    	;
 1366            	1043.41     	0           	Domiciliario    	;
 1367            	1043.41     	0           	Domiciliario    	;
 1369            	1035.51879882813	0           	Domiciliario    	;
 1370            	1035.90795898438	0           	Domiciliario    	;
 1372            	1002.49969482422	0           	Domiciliario    	;
 1375            	1038.15148925781	0           	Domiciliario    	;
 1376            	1038.27905273438	0           	Domiciliario    	;
 1378            	1074        	0           	Domiciliario    	;
 1379            	1071        	0           	Domiciliario    	;
 1381            	1037.75170898438	0           	Domiciliario    	;
 1382            	1037.98864746094	0           	Domiciliario    	;
 1384            	1074        	0           	Domiciliario    	;
 1385            	1078        	0           	Domiciliario    	;
 1387            	1033.81042480469	0           	Domiciliario    	;
 1388            	1034.69287109375	0           	Domiciliario    	;
 1393            	1058.89721679688	0           	Domiciliario    	;
 1394            	1060.125    	0           	Domiciliario    	;
 1396            	1002.86651611328	0           	Domiciliario    	;
 1398            	1036.68994140625	0           	Domiciliario    	;
 1399            	1035.96337890625	0           	Domiciliario    	;
 1401            	1006.5      	0           	Domiciliario    	;
 1402            	1006.5      	0           	Domiciliario    	;
 1404            	1020.17547607422	0           	Domiciliario    	;
 1407            	1043.24157714844	0           	Domiciliario    	;
 1409            	1036.86755371094	0           	Domiciliario    	;
 1412            	1040.11315917969	0           	Domiciliario    	;
 1414            	1007.54742431641	0           	Domiciliario    	;
 1416            	1037.45434570313	0           	Domiciliario    	;
 1418            	1045.55529785156	0           	Domiciliario    	;
 1419            	1046.14172363281	0           	Domiciliario    	;
 1421            	1018.32171630859	0           	Domiciliario    	;
 1422            	1018.5      	0           	Domiciliario    	;
 1424            	1045.09228515625	0           	Domiciliario    	;
 1426            	1018.33654785156	0           	Domiciliario    	;
 1427            	1018.24591064453	0           	Domiciliario    	;
 1429            	1051.43615722656	0           	Domiciliario    	;
 1430            	1051.9462890625	0           	Domiciliario    	;
 1433            	1018.94573974609	0           	Domiciliario    	;
 1435            	1046.81665039063	0           	Domiciliario    	;
 1437            	1018.67291259766	0           	Domiciliario    	;
 1439            	1037.07556152344	0           	Domiciliario    	;
 1440            	1038.037109375	0           	Domiciliario    	;
 1442            	1041.07922363281	0           	Domiciliario    	;
 1446            	1036.947265625	0           	Domiciliario    	;
 1447            	1038.20947265625	0           	Domiciliario    	;
 1449            	1017.55712890625	0           	Domiciliario    	;
 1450            	1018        	0           	Domiciliario    	;
 1452            	1046.5      	0           	                	;
 1453            	1046.60034179688	0           	                	;
 1455            	1041.80053710938	0           	Domiciliario    	;
 1456            	1042.38928222656	0           	Domiciliario    	;
 1459            	1037        	0           	Domiciliario    	;
 1462            	1006.50512695312	0           	Domiciliario    	;
 1463            	1006.75811767578	0           	Domiciliario    	;
 1465            	1004.72229003906	0           	Domiciliario    	;
 1467            	1039.93811035156	0           	Domiciliario    	;
 1468            	1040.58642578125	0           	Domiciliario    	;
 1471            	1047.5185546875	0           	Domiciliario    	;
 1472            	1048.20947265625	0           	Domiciliario    	;
 1475            	1041.833984375	0           	Domiciliario    	;
 1476            	1042.55151367188	0           	Domiciliario    	;
 1478            	1035.16589355469	0           	Domiciliario    	;
 1479            	1036.806640625	0           	Domiciliario    	;
 1481            	1043.0908203125	0           	Domiciliario    	;
 1482            	1043.97521972656	0           	Domiciliario    	;
 1484            	1048.81103515625	0           	Domiciliario    	;
 1485            	1049.81774902344	0           	Domiciliario    	;
 1487            	1021.49658203125	0           	Domiciliario    	;
 1491            	1034.80444335938	0           	Domiciliario    	;
 1492            	1036.61450195313	0           	Domiciliario    	;
 1494            	1050.81469726563	0           	Domiciliario    	;
 1495            	1052.25036621094	0           	Domiciliario    	;
 1497            	1048.94848632813	0           	Domiciliario    	;
 1501            	1019.60809326172	0           	Domiciliario    	;
 1503            	1020.27465820313	0           	Domiciliario    	;
 1504            	1020.87841796875	0           	Domiciliario    	;
 1506            	1019.31921386719	0           	Domiciliario    	;
 1509            	1018        	0           	Domiciliario    	;
 1511            	1053.64599609375	0           	Domiciliario    	;
 1513            	1014.74493408203	0           	Domiciliario    	;
 1516            	1043.62048339844	0           	Domiciliario    	;
 1518            	1018.70959472656	0           	Domiciliario    	;
 1520            	1047.82946777344	0           	Domiciliario    	;
 1523            	1045.07019042969	0           	Domiciliario    	;
 1525            	1043.0478515625	0           	Domiciliario    	;
 1527            	1037.88781738281	0           	Domiciliario    	;
 1529            	1051.2099609375	0           	Domiciliario    	;
 1533            	1055.38415527344	0           	Domiciliario    	;
 1535            	1017.10559082031	0           	Domiciliario    	;
 1536            	1018.06115722656	0           	Domiciliario    	;
 1538            	1046.50964355469	0           	                	;
 1541            	1040.70141601563	1.22998020005571	                	;
 1543            	1013.99487304688	0           	Domiciliario    	;
 1545            	1040.20910644531	0           	Domiciliario    	;
 1546            	1041.07470703125	0           	Domiciliario    	;
 1548            	1072        	0           	Domiciliario    	;
 1550            	1007.3583984375	0           	Domiciliario    	;
 1552            	1027.21813964844	0           	Domiciliario    	;
 1553            	1027.33190917969	0           	Domiciliario    	;
 1555            	1041.67504882813	0           	Domiciliario    	;
 1560            	1027.82958984375	0           	Domiciliario    	;
 1561            	1027.2978515625	0           	Domiciliario    	;
 1564            	1028.76171875	0           	Domiciliario    	;
 1566            	1022.36859130859	0           	Domiciliario    	;
 1569            	1042.90258789063	0           	Domiciliario    	;
 1570            	1044.32250976563	0           	Domiciliario    	;
 1573            	1018        	0           	Domiciliario    	;
 1575            	1039.89538574219	0           	Domiciliario    	;
 1578            	1045.58715820313	0           	Domiciliario    	;
 1581            	1041.66833496094	0           	Domiciliario    	;
 1583            	1046.91381835938	0           	Domiciliario    	;
 1586            	1047.78234863281	0           	Domiciliario    	;
 1589            	1038.67114257813	0           	Domiciliario    	;
 1594            	1029.03112792969	0           	Domiciliario    	;
 1598            	1053.00769042969	0           	Domiciliario    	;
 1599            	1057.67224121094	0           	Domiciliario    	;
 1601            	1007.41546630859	0           	Domiciliario    	;
 1603            	1022.02679443359	0           	Domiciliario    	;
 1607            	1038.11767578125	0           	Domiciliario    	;
 1609            	1049.45300292969	0           	Domiciliario    	;
 1612            	1039.70471191406	0           	Domiciliario    	;
 1614            	1011.04730224609	0           	Domiciliario    	;
 1615            	1012.28656005859	0           	Domiciliario    	;
 1617            	1045.67626953125	0           	Domiciliario    	;
 1620            	1004.34722900391	0           	Domiciliario    	;
 1625            	1009.48419189453	0           	Domiciliario    	;
 1627            	1022.86633300781	0           	Domiciliario    	;
 1630            	1033.38012695313	0           	Domiciliario    	;
 1633            	1029.97912597656	0           	Domiciliario    	;
 1637            	1018.20245361328	0           	Domiciliario    	;
 1638            	1019        	0           	Domiciliario    	;
 1640            	1030.16760253906	0           	Domiciliario    	;
 1642            	1018        	0           	Domiciliario    	;
 1643            	1021        	0           	Domiciliario    	;
 1649            	1036.20556640625	0           	Domiciliario    	;
 1650            	1036.20581054688	0           	Domiciliario    	;
 1652            	1032.52380371094	0           	Domiciliario    	;
 1655            	1035.55322265625	0           	Domiciliario    	;
 1656            	1035.568359375	0           	Domiciliario    	;
 1658            	1030.61071777344	0           	Domiciliario    	;
 1659            	1030.66479492188	0           	Domiciliario    	;
 1661            	1029.99963378906	0           	Domiciliario    	;
 1662            	1030.01330566406	0           	Domiciliario    	;
 1664            	1037.08276367188	0           	Domiciliario    	;
 1666            	1029.1962890625	0           	Domiciliario    	;
 1667            	1029.20568847656	0           	Domiciliario    	;
 1669            	1034.919921875	0           	Domiciliario    	;
 1671            	1022.62213134766	0           	Domiciliario    	;
 1672            	1022.52813720703	0           	Domiciliario    	;
 1674            	1029.34423828125	0           	Domiciliario    	;
 1675            	1029.29382324219	0           	Domiciliario    	;
 1677            	1028.31164550781	0           	Domiciliario    	;
 1678            	1028.26599121094	0           	Domiciliario    	;
 1680            	1028.66650390625	0           	Domiciliario    	;
 1681            	1028.7158203125	0           	Domiciliario    	;
 1683            	1023.27850341797	0           	Domiciliario    	;
 1684            	1023.14050292969	0           	Domiciliario    	;
 1687            	1050.85974121094	0           	Domiciliario    	;
 1688            	1051.19116210938	0           	Domiciliario    	;
 1695            	1030.31066894531	0           	Domiciliario    	;
 1697            	1018.18347167969	0           	Domiciliario    	;
 1699            	1029.3310546875	0           	Domiciliario    	;
 1700            	1029.36779785156	0           	Domiciliario    	;
 1702            	1039.45153808594	0           	Domiciliario    	;
 1704            	1030.22290039063	0           	Domiciliario    	;
 1706            	1029.31274414063	0           	Domiciliario    	;
 1708            	1056.59814453125	0           	Domiciliario    	;
 1709            	1057.1337890625	0           	Domiciliario    	;
 1711            	1039.4638671875	0           	Domiciliario    	;
 1713            	1029.95446777344	0           	Domiciliario    	;
 1715            	1028.44921875	0           	Domiciliario    	;
 1716            	1028.41491699219	0           	Domiciliario    	;
 1719            	1012.06109619141	0           	Domiciliario    	;
 1721            	1028.85302734375	0           	Domiciliario    	;
 1722            	1028.64953613281	0           	Domiciliario    	;
 1724            	1018        	0           	Domiciliario    	;
 1726            	1028        	0           	Domiciliario    	;
 1727            	1028.06823730469	0           	Domiciliario    	;
 1729            	1028.66943359375	0           	Domiciliario    	;
 1730            	1027.7705078125	0           	Domiciliario    	;
 1732            	1048.396484375	0           	Domiciliario    	;
 1733            	1049.06237792969	0           	Domiciliario    	;
 1735            	1028.70776367188	0           	Domiciliario    	;
 1737            	1018        	0           	Domiciliario    	;
 1739            	1037.23266601563	0           	Domiciliario    	;
 1743            	1028.38623046875	0           	Domiciliario    	;
 1744            	1028.416015625	0           	Domiciliario    	;
 1746            	1029.33093261719	0           	Domiciliario    	;
 1748            	1029.40551757813	0           	Domiciliario    	;
 1750            	1039.05810546875	0           	Domiciliario    	;
 1751            	1039.35107421875	0           	Domiciliario    	;
 1753            	1017.95306396484	0           	Domiciliario    	;
 1754            	1018        	0           	Domiciliario    	;
 1756            	1028.36560058594	0           	Domiciliario    	;
 1758            	1018        	0           	Domiciliario    	;
 1762            	1018        	0           	Domiciliario    	;
 1764            	1050.0048828125	0           	Domiciliario    	;
 1766            	1018.84649658203	0           	Domiciliario    	;
 1767            	1018.70501708984	0           	Domiciliario    	;
 1770            	1028.23950195313	0           	Domiciliario    	;
 1772            	1038.78735351563	0           	Domiciliario    	;
 1773            	1039.98815917969	0           	Domiciliario    	;
 1777            	1028.41296386719	0           	Domiciliario    	;
 1781            	1018.14123535156	0           	Domiciliario    	;
 1782            	1018.11303710938	0           	Domiciliario    	;
 1784            	1018        	0           	Domiciliario    	;
 1785            	1018        	0           	Domiciliario    	;
 1787            	1029.99328613281	0           	Domiciliario    	;
 1789            	1017.99694824219	0           	Domiciliario    	;
 1791            	1017.66949462891	0           	Domiciliario    	;
 1792            	1017.73883056641	0           	Domiciliario    	;
 1794            	1027.66931152344	0           	Domiciliario    	;
 1795            	1027.77124023438	0           	Domiciliario    	;
 1797            	1028.97741699219	0           	Domiciliario    	;
 1800            	1055.42822265625	0           	Domiciliario    	;
 1802            	1018.07489013672	0           	Domiciliario    	;
 1804            	1040.71655273438	0           	Domiciliario    	;
 1806            	1018.90167236328	0           	Domiciliario    	;
 1810            	1029.9189453125	0           	Domiciliario    	;
 1812            	1027.64428710938	0           	Domiciliario    	;
 1813            	1027.69091796875	0           	Domiciliario    	;
 1817            	1023.39855957031	0           	Domiciliario    	;
 1820            	1016.85394287109	0           	Domiciliario    	;
 1823            	1029.92272949219	0           	Domiciliario    	;
 1827            	1018.42559814453	0           	Domiciliario    	;
 1828            	1018.70770263672	0           	Domiciliario    	;
 1832            	1028.06640625	0           	Domiciliario    	;
 1837            	1018.78216552734	0           	Domiciliario    	;
 1839            	1027.89855957031	0           	Domiciliario    	;
 1842            	1041.53625488281	0           	Domiciliario    	;
 1844            	1018.79010009766	0           	Domiciliario    	;
 1846            	1018.42626953125	0           	Domiciliario    	;
 1847            	1018.42150878906	0           	Domiciliario    	;
 1849            	1018.8583984375	0           	Domiciliario    	;
 1850            	1018.87445068359	0           	Domiciliario    	;
 1852            	1018.42626953125	0           	Domiciliario    	;
 1854            	1018.83166503906	0           	Domiciliario    	;
 1855            	1018.92907714844	0           	Domiciliario    	;
 1857            	1018.55987548828	0           	Domiciliario    	;
 1859            	1021.41229248047	0           	Domiciliario    	;
 1861            	1018.56658935547	0           	Domiciliario    	;
 1864            	1018        	0           	Domiciliario    	;
 1866            	1019.26544189453	0           	Domiciliario    	;
 1867            	1018.84820556641	0           	Domiciliario    	;
 1870            	1053.35925292969	0           	Domiciliario    	;
 1872            	1021.70727539062	0           	Domiciliario    	;
 1873            	1021.68487548828	0           	Domiciliario    	;
 1879            	1019.21282958984	0           	Domiciliario    	;
 1882            	1020.67443847656	0           	Domiciliario    	;
 1886            	1027.61877441406	0           	Domiciliario    	;
 1888            	1030.24743652344	0           	Domiciliario    	;
 1890            	1028.18627929688	0           	Domiciliario    	;
 1892            	1022.47265625	0           	Domiciliario    	;
 1893            	1023.09503173828	0           	Domiciliario    	;
 1895            	1018.51434326172	0           	Domiciliario    	;
 1896            	1018.52819824219	0           	Domiciliario    	;
 1899            	1018.5      	0           	Domiciliario    	;
 1900            	1018.75543212891	0           	Domiciliario    	;
 1902            	1019.65582275391	0           	Domiciliario    	;
 1904            	1020.22369384766	0           	Domiciliario    	;
 1909            	1028.71069335938	0           	Domiciliario    	;
 1910            	1030.0537109375	0           	Domiciliario    	;
 1912            	1020.65167236328	0           	Domiciliario    	;
 1920            	1017.78442382813	0           	Domiciliario    	;
 1924            	1017.66680908203	0           	Domiciliario    	;
 1930            	1025.36340332031	0           	Domiciliario    	;
 1931            	1026.01062011719	0           	Domiciliario    	;
 1933            	1017.48223876953	0           	Domiciliario    	;
 1936            	1018.17407226563	0           	Domiciliario    	;
 1937            	1018.20056152344	0           	Domiciliario    	;
 1939            	1025.31372070313	0           	Domiciliario    	;
 1942            	1043.34338378906	0           	Domiciliario    	;
 1943            	1045.0986328125	0           	Domiciliario    	;
 1945            	1017.70837402344	0           	Domiciliario    	;
 1948            	1019.32116699219	0           	Domiciliario    	;
 1952            	1014.71759033203	0           	Domiciliario    	;
 1957            	1020.5      	0           	Domiciliario    	;
 1959            	1019.24255371094	0           	Domiciliario    	;
 1961            	1017.17492675781	0           	Domiciliario    	;
 1979            	1062        	0           	Domiciliario    	;
 1981            	1046        	0.267387000012112	                	;
 1982            	1030.17     	0.0267387000012112	Domiciliario    	;
 1983            	1041.1982421875	0.0267387000012112	Domiciliario    	;
 1984            	1018        	0.0267387000012112	Domiciliario    	;
 1985            	1041.90600585938	0.0267387000012112	Domiciliario    	;
 1986            	1038.45739746094	0.0267387000012112	Domiciliario    	;
 1987            	1042.77844238281	0.0267387000012112	Domiciliario    	;
 1988            	1043.81372070313	0.0267387000012112	Domiciliario    	;
 1989            	1039.74060058594	0.0267387000012112	Domiciliario    	;
 1990            	1018        	0.0267387000012112	Domiciliario    	;
 1991            	1040.48840332031	0.0267387000012112	Domiciliario    	;
 1992            	1045.25036621094	0.0267387000012112	Domiciliario    	;
 1993            	1041.431640625	0.0267387000012112	Domiciliario    	;
 1994            	1017.78     	0.0267387000012112	Domiciliario    	;
 1995            	1045.77868652344	0.0267387000012112	Domiciliario    	;
 1996            	1046.37927246094	0.0267387000012112	Domiciliario    	;
 1997            	1031.96850585938	0.0267387000012112	Domiciliario    	;
 1998            	1047.11071777344	0.0267387000012112	Domiciliario    	;
 1999            	1039        	0.0267387000012112	Domiciliario    	;
 2000            	1043.22229003906	0.0267387000012112	Domiciliario    	;
 2001            	1048.04675292969	0.0267387000012112	Domiciliario    	;
 2002            	1049.11389160156	0.0267387000012112	Domiciliario    	;
 2003            	1045.03930664063	0.0267387000012112	Domiciliario    	;
 2004            	1039.66320800781	0.0534774000024223	                	;
 2005            	1050.06848144531	0.0267387000012112	Domiciliario    	;
 2006            	1051.28454589844	0.0534774000024223	                	;
 2007            	1018        	0.0267387000012112	Domiciliario    	;
 2008            	1046.13903808594	0.0267387000012112	Domiciliario    	;
 2009            	1045.75231933594	0.0267387000012112	Domiciliario    	;
 2010            	1047.36145019531	0.0534774000024223	                	;
 2011            	1078        	0.0267387000012112	Domiciliario    	;
 2012            	1048.08837890625	0.0267387000012112	Domiciliario    	;
 2013            	1049.03369140625	0.133693500006056	                	;
 2014            	1030.50036621094	0.0267387000012112	Domiciliario    	;
 2015            	1023.42071533203	0.0267387000012112	Domiciliario    	;
 2016            	1074        	0.0267387000012112	Domiciliario    	;
 2017            	1055.54919433594	0.0267387000012112	Domiciliario    	;
 2018            	1048        	0.133693500006056	                	;
 2019            	1030.75317382813	0.0267387000012112	Domiciliario    	;
 2020            	1030.58911132813	0.0534774000024223	                	;
 2021            	1030.39086914063	0.0267387000012112	Domiciliario    	;
 2022            	1071.87353515625	0.0267387000012112	Domiciliario    	;
 2023            	1017.85485839844	0.0267387000012112	Domiciliario    	;
 2024            	1030.17419433594	0.2406483   	                	;
 2025            	1058.89855957031	0.0267387000012112	Domiciliario    	;
 2026            	1020.90356445313	0.0267387000012112	Domiciliario    	;
 2027            	1029.5703125	0.0267387000012112	Domiciliario    	;
 2028            	1074        	0.0534774000024223	                	;
 2029            	1030.16455078125	0.0267387000012112	Domiciliario    	;
 2030            	1059.98693847656	0.0267387000012112	Domiciliario    	;
 2031            	1017.17     	0.0267387000012112	Domiciliario    	;
 2033            	1072        	0.0267387000012112	Domiciliario    	;
 2034            	1029.59191894531	0.0267387000012112	Domiciliario    	;
 2036            	1067.70397949219	0.0267387000012112	Domiciliario    	;
 2037            	1039.69702148438	0.3208644   	                	;
 2038            	1017.88970947266	0.0267387000012112	Domiciliario    	;
 2039            	1029.00939941406	0.0534774000024223	                	;
 2040            	1067.22204589844	0.0267387000012112	Domiciliario    	;
 2041            	1016.77709960938	0.0267387000012112	Domiciliario    	;
 2042            	1028.5      	0.0267387000012112	Domiciliario    	;
 2043            	1028.97912597656	0.0267387000012112	Domiciliario    	;
 2044            	1018        	0.0534774000024223	                	;
 2045            	1033.59130859375	0.0267387000012112	Domiciliario    	;
 2046            	1034.41918945313	0.0267387000012112	Domiciliario    	;
 2047            	1018.00170898438	0.0267387000012112	Domiciliario    	;
 2048            	1039.53637695313	0.0267387000012112	Domiciliario    	;
 2049            	1039.2      	0.0534774000024223	                	;
 2051            	1039.5      	0.0267387000012112	Domiciliario    	;
 2052            	1036.91564941406	0.0267387000012112	Domiciliario    	;
 2053            	1039        	0.0267387000012112	Domiciliario    	;
 2054            	1037.37451171875	0.0267387000012112	Domiciliario    	;
 2055            	1028.02954101563	0.1871709   	                	;
 2056            	1035.51525878906	0.0267387000012112	Domiciliario    	;
 2057            	1018.11     	0.0534774000024223	                	;
 2058            	1037.77697753906	0.0267387000012112	Domiciliario    	;
 2059            	1020.63140869141	0.0267387000012112	Domiciliario    	;
 2060            	1036.34350585938	0.0267387000012112	Domiciliario    	;
 2061            	1018.78656005859	0.0534774000024223	                	;
 2062            	1040        	0.0267387000012112	Domiciliario    	;
 2063            	1038.17907714844	0.0267387000012112	Domiciliario    	;
 2064            	1038.28894042969	0.0267387000012112	Domiciliario    	;
 2065            	1028.78515625	0.0534774000024223	                	;
 2066            	1037        	0.0267387000012112	Domiciliario    	;
 2067            	1017.95263671875	0.0267387000012112	Domiciliario    	;
 2068            	1028.03198242188	0.0267387000012112	Domiciliario    	;
 2069            	1018.48522949219	0.0267387000012112	Domiciliario    	;
 2070            	1039.53674316406	0.0534774000024223	                	;
 2071            	1018.56     	0.0267387000012112	Domiciliario    	;
 2072            	1028.19006347656	0.0267387000012112	Domiciliario    	;
 2073            	1019.00994873047	0.0267387000012112	Domiciliario    	;
 2074            	1027.96325683594	0.0267387000012112	Domiciliario    	;
 2075            	1018.93     	0.133693500006056	                	;
 2076            	1027.46728515625	0.0534774000024223	                	;
 2077            	1019.24566650391	0.0267387000012112	Domiciliario    	;
 2078            	1018.5      	0.0267387000012112	Domiciliario    	;
 2079            	1027.29528808594	0.0267387000012112	Domiciliario    	;
 2080            	1029.12683105469	0.0267387000012112	Domiciliario    	;
 2081            	1039.435546875	0.0267387000012112	Domiciliario    	;
 2082            	1018.94885253906	0.0534774000024223	                	;
 2083            	1018.5      	0.0267387000012112	Domiciliario    	;
 2084            	1027.8076171875	0.0267387000012112	Domiciliario    	;
 2085            	1028.43286132813	0.0267387000012112	Domiciliario    	;
 2086            	1018.94488525391	0.0267387000012112	Domiciliario    	;
 2087            	1018.48577880859	0.0534774000024223	                	;